data/DSS_files/Lines.dss
New Line.bna1_261 Units=km Length=0.23755590799999998 bus1=260.1.2.3 bus2=261.1.2.3 switch=n enabled=y phases=3 Linecode=3P_OH_Code0

New Line.bna1_244 Units=km Length=0.04681845 bus1=240_HEAD.1.2.3 bus2=BNA1_244.1.2.3 switch=n enabled=y phases=3 Linecode=3P_OH_Code0

New Line.bna1_256 Units=km Length=0.020084313000000003 bus1=BNA1_252.1.2.3 bus2=BNA1_256.1.2.3 switch=n enabled=y phases=3 Linecode=3P_OH_Code0

New Line.bna1_262 Units=km Length=0.054674809000000005 bus1=261.1.2.3 bus2=262.1.2.3 switch=n enabled=y phases=3 Linecode=3P_OH_Code0

New Line.bna1_258 Units=km Length=0.047939759000000005 bus1=BNA1_254.1.2.3 bus2=258.1.2.3 switch=n enabled=y phases=3 Linecode=3P_OH_Code0

New Line.bna1_245 Units=km Length=0.160245214 bus1=BNA1_244.1.2.3 bus2=BNA1_245.1.2.3 switch=n enabled=y phases=3 Linecode=3P_OH_Code0

New Line.bna1_250 Units=km Length=0.093131489 bus1=BNA1_245.1.2.3 bus2=BNA1_250.1.2.3 switch=n enabled=y phases=3 Linecode=3P_OH_Code0

New Line.bna1_259 Units=km Length=0.199148112 bus1=BNA1_254.1.2.3 bus2=259.1.2.3 switch=n enabled=y phases=3 Linecode=3P_OH_Code0

New Line.bna1_246 Units=km Length=0.206535715 bus1=BNA1_245.1.2.3 bus2=BNA1_246.1.2.3 switch=n enabled=y phases=3 Linecode=3P_OH_Code0

New Line.bna1_251 Units=km Length=0.059997328 bus1=BNA1_250.1.2.3 bus2=BNA1_251.1.2.3 switch=n enabled=y phases=3 Linecode=3P_OH_Code0

New Line.bna1_247 Units=km Length=0.34201640200000005 bus1=BNA1_246.1.2.3 bus2=BNA1_247.1.2.3 switch=n enabled=y phases=3 Linecode=3P_OH_Code0

New Line.bna1_252 Units=km Length=0.26637041699999997 bus1=BNA1_251.1.2.3 bus2=BNA1_252.1.2.3 switch=n enabled=y phases=3 Linecode=3P_OH_Code0

New Line.bna1_253 Units=km Length=0.208562697 bus1=BNA1_252.1.2.3 bus2=BNA1_253.1.2.3 switch=n enabled=y phases=3 Linecode=3P_OH_Code0

New Line.bna1_268 Units=km Length=0.176507363 bus1=BNA1_267.1.2.3 bus2=BNA1_268.1.2.3 switch=n enabled=y phases=3 Linecode=3P_OH_Code0

New Line.bna1_267 Units=km Length=0.5684379 bus1=BNA1_247.1.2.3 bus2=BNA1_267.1.2.3 switch=n enabled=y phases=3 Linecode=3P_OH_Code0

New Line.bna1_254 Units=km Length=0.35406010400000004 bus1=BNA1_253.1.2.3 bus2=BNA1_254.1.2.3 switch=n enabled=y phases=3 Linecode=3P_OH_Code0

New Line.bna1_269 Units=km Length=1.005416843 bus1=BNA1_268.1.2.3 bus2=BNA1_269.1.2.3 switch=n enabled=y phases=3 Linecode=3P_OH_Code0

New Line.bna1_255 Units=km Length=0.011948835000000001 bus1=BNA1_253.2 bus2=BNA1_255.2 switch=n enabled=y phases=1 Linecode=1P_OH_Code1

New Line.bna1_257 Units=km Length=0.377867514 bus1=BNA1_250.1 bus2=257.1 switch=n enabled=y phases=1 Linecode=1P_OH_Code1

New Line.bna1_263 Units=km Length=0.289585608 bus1=261.2 bus2=263.2 switch=n enabled=y phases=1 Linecode=1P_OH_Code1

New Line.bna1_270 Units=km Length=0.297631693 bus1=BNA1_269.2 bus2=BNA1_270.2 switch=n enabled=y phases=1 Linecode=1P_OH_Code1

New Line.bna1_271 Units=km Length=0.039357529999999995 bus1=BNA1_268.2 bus2=BNA1_271.2 switch=n enabled=y phases=1 Linecode=1P_OH_Code1

New Line.bna1_260 Units=km Length=0.09728138800000001 bus1=259.1.2.3 bus2=260.1.2.3 switch=n enabled=y phases=3 Linecode=3P_UG_Code2

